Version 4
SHEET 1 4084 952
WIRE 320 48 96 48
WIRE 416 48 320 48
WIRE 688 48 416 48
WIRE 816 48 688 48
WIRE 1392 48 816 48
WIRE 96 64 96 48
WIRE 320 96 320 48
WIRE 688 96 688 48
WIRE 816 96 816 48
WIRE 1392 96 1392 48
WIRE 96 176 96 144
WIRE 416 208 416 48
WIRE 816 208 816 176
WIRE 848 208 816 208
WIRE 992 208 912 208
WIRE 208 272 96 272
WIRE 240 272 208 272
WIRE 320 272 320 176
WIRE 320 272 304 272
WIRE 368 272 320 272
WIRE 816 288 816 208
WIRE 992 288 992 208
WIRE 992 304 992 288
WIRE 416 336 416 304
WIRE 448 336 416 336
WIRE 624 336 592 336
WIRE 688 336 688 176
WIRE 752 336 688 336
WIRE 1760 336 1040 336
WIRE 688 368 688 336
WIRE 208 384 208 272
WIRE 320 384 320 272
WIRE 416 384 416 336
WIRE 96 400 96 352
WIRE 624 416 624 336
WIRE 624 448 624 416
WIRE 688 464 688 448
WIRE 992 464 992 368
WIRE 1152 464 1120 464
WIRE 1216 464 1152 464
WIRE 1392 464 1392 176
WIRE 1392 464 1280 464
WIRE 1488 464 1392 464
WIRE 1552 464 1488 464
WIRE 1648 464 1616 464
WIRE 1760 464 1648 464
WIRE 816 480 816 384
WIRE 768 512 672 512
WIRE 1488 528 1488 464
WIRE 1648 528 1648 464
WIRE 1760 528 1760 464
WIRE 208 560 208 464
WIRE 320 560 320 464
WIRE 416 560 416 464
WIRE 624 608 624 544
WIRE 816 608 816 560
WIRE 816 608 624 608
WIRE 992 608 816 608
WIRE 1120 624 1120 544
WIRE 1392 624 1392 464
WIRE 768 640 768 512
WIRE 1040 640 768 640
WIRE 1120 640 1120 624
WIRE 816 656 816 608
WIRE 1760 656 1760 608
WIRE 1856 656 1760 656
WIRE 1040 672 1040 640
WIRE 1056 672 1040 672
WIRE 1072 672 1056 672
WIRE 1488 672 1488 608
WIRE 1488 672 1456 672
WIRE 1552 672 1488 672
WIRE 1648 672 1648 592
WIRE 1648 672 1616 672
WIRE 992 720 992 608
WIRE 1760 720 1760 656
WIRE 1648 736 1648 672
WIRE 1760 736 1760 720
WIRE 1856 768 1856 656
WIRE 1856 768 1808 768
WIRE 1120 784 1120 704
WIRE 816 800 816 736
WIRE 992 800 992 784
WIRE 1760 800 1760 784
WIRE 1120 912 1120 864
WIRE 1392 912 1392 720
WIRE 1648 912 1648 816
WIRE 1760 912 1760 800
FLAG 96 176 0
FLAG 208 560 0
FLAG 320 560 0
FLAG 416 560 0
FLAG 688 464 0
FLAG 816 800 0
FLAG 992 464 0
FLAG 992 800 0
FLAG 1120 912 0
FLAG 1392 912 0
FLAG 1648 912 0
FLAG 1760 912 0
FLAG 1760 336 SIGNAL_OUT
FLAG 96 400 0
FLAG 96 272 SIGNAL_IN
IOPIN 96 272 In
FLAG 1152 464 FL
FLAG 1056 672 G
FLAG 624 416 D
SYMBOL Misc\\battery 96 48 R0
WINDOW 123 0 0 Left 0
WINDOW 39 0 0 Left 0
SYMATTR InstName V1
SYMATTR Value 9
SYMBOL res 304 80 R0
SYMATTR InstName R1
SYMATTR Value 1Meg
SYMATTR SpiceLine tol=1 pwr=0.1
SYMBOL cap 304 256 R90
WINDOW 0 0 32 VBottom 2
WINDOW 3 32 32 VTop 2
SYMATTR InstName C1
SYMATTR Value 2.2µ
SYMATTR SpiceLine V=4 Irms=0 Rser=0 Lser=0 mfg="Murata" pn="GRM033R60G225ME47" type="X5R"
SYMBOL res 192 368 R0
SYMATTR InstName R2
SYMATTR Value 1Meg
SYMATTR SpiceLine tol=1 pwr=0.1
SYMBOL res 304 368 R0
SYMATTR InstName R3
SYMATTR Value 1Meg
SYMATTR SpiceLine tol=1 pwr=0.1
SYMBOL njf 368 208 R0
WINDOW 3 39 59 Left 2
SYMATTR Value 2N5485
SYMATTR InstName J1
SYMBOL cap 448 352 R270
WINDOW 0 32 32 VTop 2
WINDOW 3 0 32 VBottom 2
SYMATTR InstName C2
SYMATTR Value 10µ
SYMATTR Description Polarized Capacitor
SYMATTR Type polcap
SYMATTR SpiceLine V=4 Irms=0 Rser=0 Lser=0 mfg="Murata" pn="GRM155R60G106ME15" type="X5R"
SYMBOL res 400 368 R0
SYMATTR InstName R4
SYMATTR Value 10K
SYMATTR SpiceLine tol=1 pwr=0.1
SYMBOL res 672 352 R0
SYMATTR InstName R5
SYMATTR Value 240K
SYMATTR SpiceLine tol=1 pwr=0.1
SYMBOL res 672 80 R0
SYMATTR InstName R6
SYMATTR Value 562K
SYMATTR SpiceLine tol=1 pwr=0.1
SYMBOL npn 752 288 R0
SYMATTR InstName Q1
SYMATTR Value 2N3904
SYMBOL res 800 80 R0
SYMATTR InstName R7
SYMATTR Value 4.75K
SYMATTR SpiceLine tol=1 pwr=0.1
SYMBOL res 800 464 R0
SYMATTR InstName R8
SYMATTR Value 182
SYMATTR SpiceLine tol=1 pwr=0.1
SYMBOL res 800 640 R0
SYMATTR InstName R9
SYMATTR Value 2.4k
SYMBOL cap 912 192 R90
WINDOW 0 0 32 VBottom 2
WINDOW 3 32 32 VTop 2
SYMATTR InstName C5
SYMATTR Value 0.47µ
SYMATTR SpiceLine V=4 Irms=3.38 Rser=0.0190129 Lser=0 mfg="KEMET" pn="C0805C474K7PAC" type="X5R"
SYMBOL njf 672 448 M0
SYMATTR InstName J2
SYMATTR Value 2N5485
SYMBOL res 1104 448 R0
SYMATTR InstName R10
SYMATTR Value 1Meg
SYMATTR SpiceLine tol=1 pwr=0.1
SYMBOL res 1104 768 R0
SYMATTR InstName R11
SYMATTR Value 10K
SYMATTR SpiceLine tol=1 pwr=0.1
SYMBOL cap 1280 448 R90
WINDOW 0 0 32 VBottom 2
WINDOW 3 32 32 VTop 2
SYMATTR InstName C6
SYMATTR Value 0.47µ
SYMATTR SpiceLine V=4 Irms=3.38 Rser=0.0190129 Lser=0 mfg="KEMET" pn="C0805C474K7PAC" type="X5R"
SYMBOL npn 1456 624 M0
SYMATTR InstName Q2
SYMATTR Value 2N3904
SYMBOL res 1376 80 R0
SYMATTR InstName R12
SYMATTR Value 15K
SYMATTR SpiceLine tol=1 pwr=0.1
SYMBOL res 1472 512 R0
SYMATTR InstName R13
SYMATTR Value 2.2Meg
SYMBOL cap 1616 448 R90
WINDOW 0 0 32 VBottom 2
WINDOW 3 32 32 VTop 2
SYMATTR InstName C7
SYMATTR Value 1µ
SYMATTR SpiceLine V=4 Irms=0 Rser=0 Lser=0 mfg="Murata" pn="GRM153R60G105ME95" type="X5R"
SYMBOL cap 1616 656 R90
WINDOW 0 0 32 VBottom 2
WINDOW 3 32 32 VTop 2
SYMATTR InstName C8
SYMATTR Value 1µ
SYMATTR SpiceLine V=4 Irms=0 Rser=0 Lser=0 mfg="Murata" pn="GRM153R60G105ME95" type="X5R"
SYMBOL polcap 1632 528 R0
WINDOW 3 24 56 Left 2
SYMATTR Value 1µ
SYMATTR InstName C9
SYMATTR Description Capacitor
SYMATTR Type cap
SYMATTR SpiceLine V=2 Irms=3 Rser=0.011 Lser=0
SYMBOL res 1632 720 R0
SYMATTR InstName R14
SYMATTR Value 15K
SYMATTR SpiceLine tol=1 pwr=0.1
SYMBOL res 1744 512 R0
SYMATTR InstName R15
SYMATTR Value 1K
SYMATTR SpiceLine tol=1 pwr=0.1
SYMBOL Misc\\signal 96 256 R0
WINDOW 0 -3 -5 Left 2
WINDOW 123 0 0 Left 0
WINDOW 39 0 0 Left 0
WINDOW 3 -109 184 Left 2
SYMATTR InstName IN_SIGNAL
SYMATTR Value SINE(0 800m 196)
SYMBOL polcap 976 720 R0
SYMATTR InstName C3
SYMATTR Value 22µ
SYMATTR SpiceLine V=4 Irms=0 Rser=3.5 Lser=0 mfg="AVX" pn="TAJA226M004" type="Tantalum"
SYMBOL cap 624 352 R270
WINDOW 0 32 32 VTop 2
WINDOW 3 0 32 VBottom 2
SYMATTR InstName C4
SYMATTR Value 10µ
SYMATTR Description Polarized Capacitor
SYMATTR Type polcap
SYMATTR SpiceLine V=4 Irms=0 Rser=0 Lser=0 mfg="Murata" pn="GRM155R60G106ME15" type="X5R"
SYMBOL res 608 320 R90
WINDOW 0 0 56 VBottom 2
WINDOW 3 32 56 VTop 2
SYMATTR InstName R16
SYMATTR Value 10k
SYMBOL potentiometer 976 272 R0
SYMATTR InstName U1
SYMATTR Value Rtot=10K wiper=1
SYMBOL potentiometer 1744 704 R0
SYMATTR InstName U2
SYMBOL potentiometer 1136 608 M0
SYMATTR InstName U3
SYMATTR Value Rtot=100K wiper=.5
TEXT 144 704 Left 4 !.tran 0 7s 6.5 0.001
TEXT 1560 0 Left 2 !.include potentiometer.sub
