Version 4
SHEET 1 6920 4948
WIRE 2736 896 2720 896
WIRE 2816 896 2816 864
WIRE 2832 896 2816 896
WIRE 2944 896 2912 896
WIRE 2720 928 2720 896
WIRE 2944 928 2944 896
WIRE 3344 928 3312 928
WIRE 672 960 640 960
WIRE 816 960 752 960
WIRE 928 960 896 960
WIRE 976 960 928 960
WIRE -384 992 -400 992
WIRE -304 992 -384 992
WIRE -160 992 -224 992
WIRE 48 992 -160 992
WIRE -160 1008 -160 992
WIRE 48 1008 48 992
WIRE 928 1008 928 960
WIRE 928 1008 848 1008
WIRE -384 1024 -384 992
WIRE -384 1024 -528 1024
WIRE 2720 1024 2720 1008
WIRE 2752 1024 2720 1024
WIRE 2944 1024 2944 1008
WIRE 2992 1024 2944 1024
WIRE 3296 1024 3296 992
WIRE -528 1040 -528 1024
WIRE 640 1040 640 960
WIRE 720 1040 640 1040
WIRE 976 1040 976 960
WIRE 976 1040 784 1040
WIRE 3232 1040 3232 928
WIRE 3232 1040 3216 1040
WIRE 3264 1040 3232 1040
WIRE 2720 1056 2720 1024
WIRE 2944 1056 2944 1024
WIRE 3344 1056 3344 928
WIRE 3344 1056 3328 1056
WIRE 3392 1056 3344 1056
WIRE 3488 1056 3472 1056
WIRE 3504 1056 3488 1056
WIRE 3248 1072 3232 1072
WIRE 3264 1072 3248 1072
WIRE -160 1088 -160 1072
WIRE 3248 1088 3248 1072
WIRE 2528 1104 2480 1104
WIRE 2640 1104 2608 1104
WIRE 2656 1104 2640 1104
WIRE 3040 1104 3008 1104
WIRE 640 1120 640 1040
WIRE 720 1120 640 1120
WIRE 976 1120 976 1040
WIRE 976 1120 784 1120
WIRE 3040 1120 3040 1104
WIRE 3296 1120 3296 1088
WIRE -384 1136 -384 1104
WIRE -384 1136 -464 1136
WIRE 2640 1136 2640 1104
WIRE -464 1152 -464 1136
WIRE -384 1152 -384 1136
WIRE -384 1152 -432 1152
WIRE -160 1152 -224 1152
WIRE -32 1152 -80 1152
WIRE 48 1152 48 1088
WIRE 48 1152 -32 1152
WIRE 560 1152 48 1152
WIRE 560 1168 560 1152
WIRE -432 1184 -432 1152
WIRE -432 1184 -528 1184
WIRE -32 1184 -32 1152
WIRE 2720 1184 2720 1152
WIRE 2736 1184 2720 1184
WIRE 2832 1184 2816 1184
WIRE 2848 1184 2832 1184
WIRE 2944 1184 2944 1152
WIRE 2944 1184 2928 1184
WIRE -5424 1216 -5424 1200
WIRE -5424 1216 -5520 1216
WIRE -5328 1216 -5328 1200
WIRE -5216 1216 -5328 1216
WIRE 768 1216 736 1216
WIRE -5520 1232 -5520 1216
WIRE -5424 1232 -5424 1216
WIRE -5328 1232 -5328 1216
WIRE -5216 1232 -5216 1216
WIRE 2272 1232 2272 1216
WIRE 736 1248 736 1216
WIRE -384 1264 -384 1232
WIRE -384 1264 -400 1264
WIRE 640 1264 640 1120
WIRE 704 1264 640 1264
WIRE 2832 1264 2832 1184
WIRE 976 1280 976 1120
WIRE 976 1280 768 1280
WIRE 2320 1280 2304 1280
WIRE 2336 1280 2320 1280
WIRE 2448 1280 2416 1280
WIRE 384 1296 256 1296
WIRE 688 1296 448 1296
WIRE 704 1296 688 1296
WIRE 3536 1296 3536 1280
WIRE 2704 1312 2608 1312
WIRE 2768 1312 2704 1312
WIRE 640 1328 640 1264
WIRE 688 1328 688 1296
WIRE -4080 1344 -4160 1344
WIRE -3952 1344 -4000 1344
WIRE 736 1344 736 1312
WIRE 768 1344 736 1344
WIRE 2704 1344 2704 1312
WIRE -3248 1360 -3392 1360
WIRE -3088 1360 -3184 1360
WIRE -2752 1360 -3088 1360
WIRE -640 1376 -656 1376
WIRE -224 1376 -272 1376
WIRE -32 1376 -32 1264
WIRE 0 1376 -32 1376
WIRE 256 1376 256 1296
WIRE 560 1376 560 1248
WIRE 560 1376 512 1376
WIRE 3408 1376 3408 1344
WIRE 2448 1392 2448 1280
WIRE 2464 1392 2448 1392
WIRE 2608 1392 2608 1312
WIRE 2608 1392 2560 1392
WIRE 2640 1392 2608 1392
WIRE 2832 1392 2832 1360
WIRE -640 1408 -640 1376
WIRE -256 1408 -256 1344
WIRE -256 1408 -272 1408
WIRE -48 1408 -176 1408
WIRE -4832 1424 -4864 1424
WIRE -4720 1424 -4752 1424
WIRE -2064 1424 -2064 1408
WIRE -272 1440 -272 1408
WIRE 128 1440 128 1376
WIRE 384 1440 384 1376
WIRE -1968 1456 -2032 1456
WIRE -576 1456 -592 1456
WIRE -480 1456 -512 1456
WIRE -352 1456 -352 1376
WIRE -352 1456 -400 1456
WIRE -304 1456 -352 1456
WIRE 256 1456 256 1376
WIRE -4160 1472 -4160 1344
WIRE -4160 1472 -4288 1472
WIRE -4048 1472 -4160 1472
WIRE -2096 1472 -2176 1472
WIRE -224 1472 -224 1376
WIRE -224 1472 -240 1472
WIRE -176 1472 -176 1408
WIRE -176 1472 -224 1472
WIRE -160 1472 -176 1472
WIRE 2512 1472 2512 1456
WIRE 2704 1472 2704 1440
WIRE 3408 1472 3408 1456
WIRE 3472 1472 3408 1472
WIRE -4416 1488 -4416 1456
WIRE -4416 1488 -4560 1488
WIRE -3952 1488 -3952 1344
WIRE -3952 1488 -3984 1488
WIRE -3792 1488 -3952 1488
WIRE -3712 1488 -3792 1488
WIRE -3632 1488 -3712 1488
WIRE -3392 1488 -3392 1360
WIRE -3392 1488 -3552 1488
WIRE -3248 1488 -3392 1488
WIRE -304 1488 -320 1488
WIRE 3408 1488 3408 1472
WIRE 3472 1488 3472 1472
WIRE -4048 1504 -4112 1504
WIRE -3088 1504 -3088 1360
WIRE -3088 1504 -3184 1504
WIRE -2928 1504 -3088 1504
WIRE -4416 1520 -4416 1488
WIRE -4288 1520 -4288 1472
WIRE -3248 1520 -3504 1520
WIRE -2816 1520 -2864 1520
WIRE -2752 1520 -2816 1520
WIRE -640 1520 -640 1488
WIRE 256 1520 256 1504
WIRE -2928 1536 -2976 1536
WIRE -5120 1552 -5568 1552
WIRE -4992 1552 -5040 1552
WIRE -4976 1552 -4992 1552
WIRE -4864 1552 -4864 1424
WIRE -4864 1552 -4976 1552
WIRE -4832 1552 -4864 1552
WIRE -4112 1552 -4112 1504
WIRE -272 1552 -272 1504
WIRE -272 1552 -304 1552
WIRE -4720 1568 -4720 1424
WIRE -4720 1568 -4768 1568
WIRE -4480 1568 -4720 1568
WIRE -4192 1568 -4224 1568
WIRE -48 1568 -48 1408
WIRE -48 1568 -64 1568
WIRE 0 1568 -48 1568
WIRE 128 1568 128 1504
WIRE 128 1568 80 1568
WIRE 384 1568 384 1504
WIRE 384 1568 128 1568
WIRE 464 1568 384 1568
WIRE 656 1568 544 1568
WIRE 976 1568 976 1280
WIRE 976 1568 656 1568
WIRE -4832 1584 -4864 1584
WIRE -5568 1600 -5568 1552
WIRE -3712 1600 -3712 1488
WIRE -3632 1600 -3712 1600
WIRE -3504 1600 -3504 1520
WIRE -3504 1600 -3552 1600
WIRE -3216 1600 -3216 1536
WIRE -2176 1600 -2176 1472
WIRE -2112 1600 -2176 1600
WIRE -1968 1600 -1968 1456
WIRE -1968 1600 -2032 1600
WIRE 3408 1600 3408 1568
WIRE -4352 1616 -4416 1616
WIRE -4288 1616 -4352 1616
WIRE -4192 1616 -4192 1568
WIRE -4864 1632 -4864 1584
WIRE -3504 1648 -3504 1600
WIRE -3392 1648 -3392 1488
WIRE -3088 1648 -3152 1648
WIRE -2976 1648 -2976 1536
WIRE -2976 1648 -3008 1648
WIRE -2944 1648 -2976 1648
WIRE -2816 1648 -2816 1520
WIRE -2816 1648 -2864 1648
WIRE -2176 1648 -2176 1600
WIRE 80 1648 0 1648
WIRE 256 1648 256 1520
WIRE 256 1648 160 1648
WIRE 256 1680 256 1648
WIRE -624 1696 -672 1696
WIRE -4560 1712 -4560 1488
WIRE -4528 1712 -4560 1712
WIRE -4432 1712 -4464 1712
WIRE -4352 1712 -4352 1616
WIRE -1088 1712 -1088 1680
WIRE -624 1744 -624 1696
WIRE -3728 1760 -3808 1760
WIRE -3392 1760 -3392 1728
WIRE -2176 1760 -2176 1728
WIRE 1120 1760 1040 1760
WIRE -5120 1776 -5568 1776
WIRE -4992 1776 -4992 1552
WIRE -4992 1776 -5040 1776
WIRE -3808 1792 -3808 1760
WIRE -3664 1792 -3808 1792
WIRE -480 1792 -576 1792
WIRE -320 1792 -400 1792
WIRE -3808 1808 -3808 1792
WIRE -3152 1808 -3328 1808
WIRE -2816 1808 -2816 1648
WIRE -2816 1808 -3072 1808
WIRE 560 1808 560 1376
WIRE 560 1808 304 1808
WIRE 1072 1808 1072 1728
WIRE 1072 1808 1024 1808
WIRE -5568 1824 -5568 1776
WIRE -3664 1824 -3664 1792
WIRE -32 1824 -32 1376
WIRE 96 1824 -32 1824
WIRE 1024 1824 1024 1808
WIRE -4560 1840 -4560 1712
WIRE -4528 1840 -4560 1840
WIRE 656 1840 656 1568
WIRE 688 1840 656 1840
WIRE 816 1840 752 1840
WIRE 960 1840 960 1760
WIRE 960 1840 896 1840
WIRE 992 1840 960 1840
WIRE -4432 1856 -4432 1712
WIRE -4432 1856 -4464 1856
WIRE -4352 1856 -4352 1792
WIRE -4352 1856 -4432 1856
WIRE 1120 1856 1120 1760
WIRE 1120 1856 1056 1856
WIRE 1152 1856 1120 1856
WIRE 1264 1856 1232 1856
WIRE -4528 1872 -4560 1872
WIRE 992 1872 960 1872
WIRE -4560 1888 -4560 1872
WIRE -3504 1888 -3504 1728
WIRE -3392 1888 -3392 1856
WIRE -3392 1888 -3504 1888
WIRE 96 1888 96 1824
WIRE 304 1888 304 1808
WIRE -3808 1920 -3808 1888
WIRE -3504 1920 -3504 1888
WIRE 2352 1920 2352 1872
WIRE -320 1936 -320 1792
WIRE -128 1936 -320 1936
WIRE 32 1936 -128 1936
WIRE 400 1936 368 1936
WIRE 1024 1952 1024 1888
WIRE 1024 1952 992 1952
WIRE -1088 1968 -1088 1936
WIRE -624 1968 -672 1968
WIRE 2448 1968 2448 1392
WIRE 2448 1968 2400 1968
WIRE -5120 2016 -5568 2016
WIRE -4992 2016 -4992 1776
WIRE -4992 2016 -5040 2016
WIRE -624 2016 -624 1968
WIRE -128 2016 -128 1936
WIRE -5568 2064 -5568 2016
WIRE -480 2064 -576 2064
WIRE -320 2064 -320 1936
WIRE -320 2064 -400 2064
WIRE 96 2064 96 1984
WIRE 192 2064 96 2064
WIRE 304 2064 304 1984
WIRE 304 2064 192 2064
WIRE 192 2096 192 2064
WIRE -128 2144 -128 2096
WIRE -32 2144 -128 2144
WIRE -128 2176 -128 2144
WIRE -752 2208 -800 2208
WIRE -624 2208 -672 2208
WIRE 192 2208 192 2176
WIRE 352 2208 192 2208
WIRE -32 2224 -32 2144
WIRE -32 2224 -80 2224
WIRE 192 2224 192 2208
WIRE 352 2224 352 2208
WIRE 2352 2240 2352 2192
WIRE -5120 2256 -5568 2256
WIRE -4992 2256 -4992 2016
WIRE -4992 2256 -5040 2256
WIRE -624 2256 -624 2208
WIRE 5024 2272 4976 2272
WIRE 5376 2272 5024 2272
WIRE 2448 2288 2448 1968
WIRE 2448 2288 2400 2288
WIRE 4416 2288 4416 2240
WIRE -5568 2304 -5568 2256
WIRE -480 2304 -576 2304
WIRE -320 2304 -320 2064
WIRE -320 2304 -400 2304
WIRE -128 2320 -128 2256
WIRE 192 2352 192 2304
WIRE 5280 2368 5056 2368
WIRE 5376 2368 5376 2352
WIRE 5376 2368 5280 2368
WIRE 5376 2384 5376 2368
WIRE 4720 2432 4688 2432
WIRE 4976 2432 4944 2432
WIRE -5120 2480 -5568 2480
WIRE -4992 2480 -4992 2256
WIRE -4992 2480 -5040 2480
WIRE 5280 2480 5280 2368
WIRE 5376 2480 5376 2464
WIRE 4720 2496 4688 2496
WIRE 5056 2496 5056 2368
WIRE 5056 2496 4944 2496
WIRE -5568 2528 -5568 2480
WIRE 4720 2560 4688 2560
WIRE 4976 2560 4944 2560
WIRE 5280 2576 5280 2544
WIRE 5296 2576 5280 2576
WIRE 5376 2576 5376 2544
WIRE 4720 2624 4688 2624
WIRE 4976 2624 4944 2624
WIRE -5120 2688 -5568 2688
WIRE -4992 2688 -4992 2480
WIRE -4992 2688 -5040 2688
WIRE -5568 2736 -5568 2688
WIRE 5328 2736 5328 2704
WIRE 5376 2736 5376 2672
WIRE 5376 2736 5328 2736
WIRE 5408 2736 5376 2736
WIRE 5328 2752 5328 2736
WIRE -1344 2784 -1344 2688
WIRE 5328 2848 5328 2816
WIRE -1472 2912 -1504 2912
WIRE -1344 2912 -1344 2864
WIRE -1344 2912 -1392 2912
WIRE -1152 2912 -1344 2912
WIRE -976 2912 -1088 2912
WIRE -5136 2928 -5584 2928
WIRE -4992 2928 -4992 2688
WIRE -4992 2928 -5056 2928
WIRE 5328 2944 5328 2912
WIRE -5584 2976 -5584 2928
WIRE -1344 2976 -1344 2912
WIRE -2224 2992 -2272 2992
WIRE -2048 2992 -2048 2912
WIRE -2048 2992 -2144 2992
WIRE -1664 3024 -1776 3024
WIRE -1504 3024 -1504 2912
WIRE -1504 3024 -1600 3024
WIRE -1408 3024 -1504 3024
WIRE 6400 3040 6080 3040
WIRE -2048 3104 -2048 2992
WIRE 6240 3104 6144 3104
WIRE -1344 3136 -1344 3072
WIRE -1120 3136 -1344 3136
WIRE -1104 3136 -1120 3136
WIRE -976 3136 -976 2912
WIRE -976 3136 -1024 3136
WIRE -784 3136 -976 3136
WIRE -768 3136 -784 3136
WIRE -656 3136 -720 3136
WIRE -448 3136 -656 3136
WIRE 1152 3136 560 3136
WIRE 1280 3136 1152 3136
WIRE 1856 3136 1280 3136
WIRE 4464 3136 4416 3136
WIRE 4784 3136 4464 3136
WIRE 5488 3136 4784 3136
WIRE 5680 3136 5488 3136
WIRE 5776 3136 5680 3136
WIRE 5952 3136 5776 3136
WIRE 6240 3136 6240 3104
WIRE -2272 3152 -2272 2992
WIRE -2272 3152 -2368 3152
WIRE -2112 3152 -2272 3152
WIRE 560 3152 560 3136
WIRE 5952 3152 5952 3136
WIRE 6080 3152 6080 3040
WIRE 6144 3152 6144 3104
WIRE -1024 3184 -1056 3184
WIRE 1152 3184 1152 3136
WIRE 1280 3184 1280 3136
WIRE 1856 3184 1856 3136
WIRE 4784 3184 4784 3136
WIRE 4464 3200 4464 3136
WIRE -656 3216 -656 3136
WIRE 5600 3216 5488 3216
WIRE -1344 3232 -1344 3136
WIRE 5488 3232 5488 3216
WIRE 5680 3232 5680 3136
WIRE 5776 3248 5776 3136
WIRE 560 3264 560 3232
WIRE 4784 3280 4784 3264
WIRE 4864 3280 4784 3280
WIRE 4960 3280 4864 3280
WIRE 5104 3280 5024 3280
WIRE 5184 3280 5104 3280
WIRE 5344 3280 5264 3280
WIRE 5424 3280 5344 3280
WIRE 1280 3296 1280 3264
WIRE 1312 3296 1280 3296
WIRE 1456 3296 1376 3296
WIRE 4464 3296 4464 3280
WIRE 4528 3296 4464 3296
WIRE 4784 3296 4784 3280
WIRE 5104 3296 5104 3280
WIRE 4464 3312 4464 3296
WIRE 5344 3312 5344 3280
WIRE -2896 3344 -2960 3344
WIRE -2784 3344 -2832 3344
WIRE -2720 3344 -2784 3344
WIRE -2608 3344 -2656 3344
WIRE -2560 3344 -2608 3344
WIRE -2048 3344 -2048 3200
WIRE -2048 3344 -2496 3344
WIRE -1712 3344 -2048 3344
WIRE 4528 3344 4528 3296
WIRE 4592 3344 4528 3344
WIRE 4720 3344 4672 3344
WIRE 4208 3360 4112 3360
WIRE 4336 3360 4288 3360
WIRE 4400 3360 4336 3360
WIRE 1280 3376 1280 3296
WIRE 1456 3376 1456 3296
WIRE -656 3392 -656 3296
WIRE 4336 3392 4336 3360
WIRE -1344 3408 -1344 3312
WIRE -2512 3424 -2544 3424
WIRE -2368 3424 -2368 3152
WIRE -2368 3424 -2432 3424
WIRE 912 3424 768 3424
WIRE 1088 3424 1056 3424
WIRE 1152 3424 1152 3264
WIRE 1216 3424 1152 3424
WIRE 2224 3424 1504 3424
WIRE -2048 3440 -2048 3344
WIRE -1712 3440 -1712 3344
WIRE 4464 3440 4464 3408
WIRE 4608 3440 4464 3440
WIRE 4784 3440 4784 3392
WIRE 4784 3440 4608 3440
WIRE 5104 3440 5104 3376
WIRE 5104 3440 4912 3440
WIRE 5344 3440 5344 3376
WIRE 5344 3440 5104 3440
WIRE 5488 3440 5488 3328
WIRE 5488 3440 5344 3440
WIRE 5680 3440 5680 3312
WIRE 5680 3440 5488 3440
WIRE 5776 3440 5776 3312
WIRE 5776 3440 5680 3440
WIRE 5952 3440 5952 3376
WIRE 5952 3440 5776 3440
WIRE 6240 3440 5952 3440
WIRE 1152 3456 1152 3424
WIRE 4608 3472 4608 3440
WIRE 5488 3472 5488 3440
WIRE -2368 3488 -2368 3424
WIRE -1024 3488 -1024 3184
WIRE -1024 3488 -1664 3488
WIRE 5600 3488 5600 3216
WIRE 6016 3488 6016 3376
WIRE 6016 3488 5600 3488
WIRE 1088 3504 1088 3424
WIRE 6240 3504 6240 3440
WIRE -352 3520 -352 3488
WIRE -2960 3536 -2960 3344
WIRE -2544 3536 -2544 3424
WIRE -2544 3536 -2960 3536
WIRE -2432 3536 -2544 3536
WIRE 1088 3536 1088 3504
WIRE 1152 3552 1152 3536
WIRE 1456 3552 1456 3456
WIRE 1616 3552 1584 3552
WIRE 1680 3552 1616 3552
WIRE 1856 3552 1856 3264
WIRE 1856 3552 1744 3552
WIRE 1952 3552 1856 3552
WIRE 2016 3552 1952 3552
WIRE 2112 3552 2080 3552
WIRE 2224 3552 2112 3552
WIRE 4864 3552 4864 3280
WIRE 6144 3552 6144 3376
WIRE 6144 3552 4864 3552
WIRE -2784 3568 -2784 3344
WIRE -2608 3568 -2608 3344
WIRE 1280 3568 1280 3472
WIRE 4336 3568 4336 3456
WIRE 4608 3568 4608 3552
WIRE 4608 3568 4336 3568
WIRE 4912 3568 4912 3440
WIRE 4912 3568 4608 3568
WIRE 4608 3584 4608 3568
WIRE -352 3600 -352 3520
WIRE 1232 3600 1136 3600
WIRE -2048 3616 -2048 3520
WIRE -1712 3616 -1712 3520
WIRE 1952 3616 1952 3552
WIRE 2112 3616 2112 3552
WIRE 2224 3616 2224 3552
WIRE 6240 3632 6240 3584
WIRE 4528 3648 4528 3344
WIRE 6032 3648 4528 3648
WIRE 6080 3680 6080 3376
WIRE 6080 3680 4992 3680
WIRE -2784 3696 -2784 3648
WIRE 1088 3696 1088 3632
WIRE 1280 3696 1280 3648
WIRE 1280 3696 1088 3696
WIRE 1456 3696 1280 3696
WIRE 1584 3712 1584 3632
WIRE 1856 3712 1856 3552
WIRE 1232 3728 1232 3600
WIRE 1504 3728 1232 3728
WIRE 5728 3728 4640 3728
WIRE 6160 3728 5728 3728
WIRE 6400 3728 6400 3040
WIRE 6400 3728 6160 3728
WIRE -2608 3744 -2608 3648
WIRE 1280 3744 1280 3696
WIRE 2224 3744 2224 3696
WIRE 2320 3744 2224 3744
WIRE 1504 3760 1504 3728
WIRE 1520 3760 1504 3760
WIRE 1536 3760 1520 3760
WIRE 1952 3760 1952 3696
WIRE 1952 3760 1920 3760
WIRE 2016 3760 1952 3760
WIRE 2112 3760 2112 3680
WIRE 2112 3760 2080 3760
WIRE -352 3776 -352 3680
WIRE -352 3792 -352 3776
WIRE 1456 3808 1456 3696
WIRE 2224 3808 2224 3744
WIRE 4448 3808 4448 3776
WIRE 4864 3808 4448 3808
WIRE 5216 3808 4864 3808
WIRE 5360 3808 5216 3808
WIRE 5728 3808 5728 3728
WIRE 2112 3824 2112 3760
WIRE 6160 3824 6160 3728
WIRE -2608 3856 -2608 3824
WIRE -2560 3856 -2560 3792
WIRE -2560 3856 -2608 3856
WIRE 2320 3856 2320 3744
WIRE 2320 3856 2272 3856
WIRE 5216 3856 5216 3808
WIRE 5360 3856 5360 3808
WIRE 5792 3856 5776 3856
WIRE 1584 3872 1584 3792
WIRE 4864 3872 4864 3808
WIRE 6240 3872 6208 3872
WIRE 1280 3888 1280 3824
WIRE 1456 3888 1456 3872
WIRE -2608 3904 -2608 3856
WIRE -2368 3904 -2368 3584
WIRE 4944 3920 4912 3920
WIRE 5728 3920 5728 3888
WIRE 5792 3920 5792 3856
WIRE 5792 3920 5728 3920
WIRE 6160 3952 6160 3904
WIRE 6240 3952 6240 3872
WIRE 6240 3952 6160 3952
WIRE 5728 3968 5728 3920
WIRE 4864 3984 4864 3952
WIRE 4944 3984 4944 3920
WIRE 4944 3984 4864 3984
WIRE 6160 3984 6160 3952
WIRE 1584 4000 1584 3952
WIRE 1856 4000 1856 3808
WIRE 2112 4000 2112 3904
WIRE 2224 4000 2224 3888
WIRE 5216 4016 5216 3936
WIRE 5488 4016 5216 4016
WIRE 5664 4016 5568 4016
WIRE 4864 4032 4864 3984
WIRE 4512 4048 4352 4048
WIRE 6032 4064 6032 3648
WIRE 6112 4064 6032 4064
WIRE 5216 4080 5216 4016
WIRE 5360 4096 5360 3936
WIRE 4448 4112 4448 3808
WIRE 4944 4112 4912 4112
WIRE 4512 4128 4512 4048
WIRE 4512 4128 4480 4128
WIRE 4864 4128 4816 4128
WIRE 4944 4128 4944 4112
WIRE 4992 4128 4992 3680
WIRE 4992 4128 4944 4128
WIRE 5024 4128 4992 4128
WIRE 5152 4128 5104 4128
WIRE 4352 4144 4352 4048
WIRE 4352 4144 4288 4144
WIRE 4416 4144 4352 4144
WIRE 5728 4144 5728 4064
WIRE 5728 4144 5408 4144
WIRE 4640 4160 4640 3728
WIRE 4640 4160 4480 4160
WIRE 4816 4160 4816 4128
WIRE 4816 4160 4640 4160
WIRE 4448 4224 4448 4176
WIRE 4288 4288 4288 4144
WIRE 4640 4304 4640 4160
WIRE 4240 4336 4192 4336
WIRE 4288 4432 4288 4368
WIRE 4640 4432 4640 4368
WIRE 4640 4432 4288 4432
WIRE 5216 4432 5216 4176
WIRE 5216 4432 4640 4432
WIRE 5360 4432 5360 4176
WIRE 5360 4432 5216 4432
WIRE 6160 4432 6160 4080
WIRE 6160 4432 5360 4432
WIRE 5216 4464 5216 4432
FLAG -464 1152 0
FLAG -400 992 +15V
IOPIN -400 992 Out
FLAG -400 1264 -15V
IOPIN -400 1264 Out
FLAG -160 1088 0
FLAG -224 1152 LP
IOPIN -224 1152 In
FLAG -256 1344 +15V
IOPIN -256 1344 In
FLAG -304 1552 -15V
IOPIN -304 1552 In
FLAG -160 1472 Audio
IOPIN -160 1472 Out
FLAG -640 1520 0
FLAG -320 1488 0
FLAG 640 1408 0
FLAG 688 1408 0
FLAG 768 1216 +15V
IOPIN 768 1216 In
FLAG 768 1344 -15V
IOPIN 768 1344 In
FLAG -64 1568 BP
IOPIN -64 1568 In
FLAG 0 1648 HP
IOPIN 0 1648 In
FLAG 256 1760 0
FLAG 352 2288 0
FLAG 192 2352 -15V
IOPIN 192 2352 In
FLAG 400 1936 0
FLAG 960 1872 0
FLAG 992 1952 -15V
IOPIN 992 1952 In
FLAG 1072 1728 +15V
IOPIN 1072 1728 In
FLAG 1264 1856 VCF_Out
IOPIN 1264 1856 Out
FLAG -128 2320 0
FLAG -800 2208 +15V
IOPIN -800 2208 In
FLAG -624 2336 0
FLAG -624 1824 0
FLAG -624 2096 0
FLAG -672 1696 CV1
IOPIN -672 1696 In
FLAG -672 1968 Vibrato_Out
IOPIN -672 1968 In
FLAG -1088 1792 0
FLAG -1088 2048 0
FLAG -1088 1680 CV1
FLAG -1088 1936 CV2
FLAG 2640 1216 0
FLAG 2816 864 V+
FLAG 2480 1104 VCF_Out
FLAG 2512 1472 0
FLAG 2704 1472 V-
FLAG 2832 1392 V-
FLAG 3296 992 V+
FLAG 3296 1120 V-
FLAG 2752 1024 VInvert
FLAG 2992 1024 VInvert2
FLAG 3216 1040 VInvert
FLAG 3232 1072 VInvert2
FLAG 3248 1168 0
FLAG 3504 1056 VOut
FLAG 3040 1200 0
FLAG 3472 1488 0
FLAG 3536 1376 0
FLAG 3408 1344 V+
FLAG 3408 1600 V-
FLAG 3536 1280 VControl
FLAG 2272 1312 0
FLAG 2272 1216 VControl
FLAG 2352 2000 0
FLAG 2352 2320 0
FLAG 2352 2192 Envelope
FLAG 2352 1872 Tremolo_Out
FLAG -2784 3696 0
FLAG -2608 3904 0
FLAG -2368 3904 0
FLAG -2048 3616 0
FLAG -1712 3616 0
FLAG -1344 2688 9V
FLAG -1776 3024 SQUARE
FLAG -448 3136 Vibrato_Out
FLAG -656 3392 0
FLAG -1344 3408 0
FLAG -352 3776 0
FLAG -352 3520 9V
FLAG -2128 2912 0
FLAG -4800 1536 VCC
FLAG -4800 1600 VEE
FLAG -4864 1632 0
FLAG -4496 1888 VEE
FLAG -4496 1824 VCC
FLAG -4560 1888 0
FLAG -4192 1616 0
FLAG -4416 1376 VCC
FLAG -4016 1520 VEE
FLAG -4016 1456 VCC
FLAG -4112 1552 0
FLAG -3216 1472 VCC
FLAG -3504 1920 0
FLAG -2896 1488 VCC
FLAG -3216 1600 0
FLAG -2896 1552 0
FLAG -2064 1488 VCC
FLAG -2064 1408 0
FLAG -2176 1760 0
FLAG -3808 1920 0
FLAG -2752 1360 TRIANGLE
FLAG -3152 1648 VREF
FLAG -3728 1760 VREF
FLAG -3792 1488 INPUT
FLAG -2752 1520 SQUARE
FLAG -3664 1888 0
FLAG -656 1376 SQUARE
IOPIN -656 1376 In
FLAG -5424 1312 0
FLAG -5328 1312 0
FLAG -5328 1200 VEE
FLAG -5424 1200 VCC
FLAG -5568 1680 0
FLAG -4976 1552 KEY
FLAG -5520 1296 0
FLAG -5216 1296 0
FLAG -528 1104 0
FLAG -528 1248 0
FLAG 5024 2336 0
FLAG 4688 2560 PULSE
FLAG 4688 2496 TRIG
FLAG 5408 2736 TRIG
FLAG 4976 2560 TRIG
FLAG 4688 2432 0
FLAG 4688 2624 Vc
FLAG 4976 2432 Vc
FLAG 5328 2944 CV
FLAG 4976 2624 CV
FLAG 4416 2368 0
FLAG 4416 2240 Vc
FLAG 4976 2272 Vc
FLAG 4112 3360 PULSE
IOPIN 4112 3360 In
FLAG 4608 3584 0
FLAG 5488 3472 0
FLAG 5216 4464 0
FLAG 6240 3200 0
FLAG 4192 4336 Envelope
IOPIN 4192 4336 Out
FLAG 4448 3776 +15V
IOPIN 4448 3776 In
FLAG 4448 4224 -15V
IOPIN 4448 4224 In
FLAG 6240 3632 -15.00001V
IOPIN 6240 3632 Out
FLAG 4416 3136 +15.00001V
IOPIN 4416 3136 Out
FLAG -5568 1904 0
FLAG -5568 2144 0
FLAG -5568 2384 0
FLAG -5568 2608 0
FLAG -5568 2816 0
FLAG -5584 3056 0
FLAG 560 3264 0
FLAG 1152 3552 0
FLAG 1280 3888 0
FLAG 1456 3552 0
FLAG 1456 3888 0
FLAG 1584 4000 0
FLAG 1856 4000 0
FLAG 2112 4000 0
FLAG 2224 4000 0
FLAG 2224 3424 Tremolo_Out
FLAG 768 3424 SQUARE
IOPIN 768 3424 In
FLAG 1616 3552 FL
FLAG 1088 3504 D
FLAG 1520 3760 G
FLAG 3488 1136 0
SYMBOL res -208 976 R90
WINDOW 0 0 56 VBottom 2
WINDOW 3 32 56 VTop 2
SYMATTR InstName R17
SYMATTR Value 390
SYMBOL res 32 992 R0
SYMATTR InstName R18
SYMATTR Value 1k
SYMBOL res -64 1136 R90
WINDOW 0 0 56 VBottom 2
WINDOW 3 32 56 VTop 2
SYMATTR InstName R19
SYMATTR Value 47k
SYMBOL res 544 1152 R0
WINDOW 3 44 63 Left 2
SYMATTR Value 2.2k
SYMATTR InstName R20
SYMBOL res -48 1168 R0
SYMATTR InstName R21
SYMATTR Value 2.2k
SYMBOL diode 64 1360 R90
WINDOW 0 0 32 VBottom 2
WINDOW 3 32 52 VTop 2
SYMATTR InstName D1
SYMATTR Value 1N914
SYMBOL diode 128 1360 R90
WINDOW 0 0 32 VBottom 2
WINDOW 3 50 43 VTop 2
SYMATTR InstName D2
SYMATTR Value 1N914
SYMBOL diode 192 1360 R90
WINDOW 0 0 32 VBottom 2
WINDOW 3 32 47 VTop 2
SYMATTR InstName D3
SYMATTR Value 1N914
SYMBOL diode 256 1360 R90
WINDOW 0 0 32 VBottom 2
WINDOW 3 50 42 VTop 2
SYMATTR InstName D4
SYMATTR Value 1N914
SYMBOL diode 320 1360 R90
WINDOW 0 0 32 VBottom 2
WINDOW 3 32 40 VTop 2
SYMATTR InstName D5
SYMATTR Value 1N914
SYMBOL diode 384 1360 R90
WINDOW 0 0 32 VBottom 2
WINDOW 3 46 30 VTop 2
SYMATTR InstName D6
SYMATTR Value 1N914
SYMBOL diode 448 1360 R90
WINDOW 0 0 32 VBottom 2
WINDOW 3 32 19 VTop 2
SYMATTR InstName D7
SYMATTR Value 1N914
SYMBOL diode 512 1360 R90
WINDOW 0 0 32 VBottom 2
WINDOW 3 33 -3 VTop 2
SYMATTR InstName D8
SYMATTR Value 1N914
SYMBOL res -256 1360 R90
WINDOW 0 0 56 VBottom 2
WINDOW 3 32 56 VTop 2
SYMATTR InstName R22
SYMATTR Value 10k
SYMBOL res -384 1440 R90
WINDOW 0 0 56 VBottom 2
WINDOW 3 32 56 VTop 2
SYMATTR InstName R23
SYMATTR Value 10k
SYMBOL potentiometer -656 1392 R0
WINDOW 3 -240 67 Left 2
SYMATTR Value Rtot=50k wiper=.99
SYMATTR InstName U7
SYMBOL cap 448 1280 R90
WINDOW 0 0 32 VBottom 2
WINDOW 3 32 32 VTop 2
SYMATTR InstName C3
SYMATTR Value 0.68µ
SYMBOL res 672 1312 R0
WINDOW 0 37 51 Left 2
SYMATTR InstName R24
SYMATTR Value 2.2Meg
SYMBOL res 624 1312 R0
WINDOW 0 -39 36 Left 2
WINDOW 3 -41 64 Left 2
SYMATTR InstName R25
SYMATTR Value 22k
SYMBOL diode 784 1024 R90
WINDOW 0 0 32 VBottom 2
WINDOW 3 32 32 VTop 2
SYMATTR InstName D9
SYMATTR Value 1N914
SYMBOL diode 720 1104 M90
WINDOW 0 0 32 VBottom 2
WINDOW 3 32 32 VTop 2
SYMATTR InstName D10
SYMATTR Value 1N914
SYMBOL res 768 944 R90
WINDOW 0 0 56 VBottom 2
WINDOW 3 32 56 VTop 2
SYMATTR InstName R26
SYMATTR Value 4.7k
SYMBOL potentiometer 912 944 R90
WINDOW 3 -23 -114 VRight 2
SYMATTR Value Rtot=20k wiper=.1
SYMATTR InstName U8
SYMBOL res 96 1552 R90
WINDOW 0 0 56 VBottom 2
WINDOW 3 32 56 VTop 2
SYMATTR InstName R27
SYMATTR Value 47k
SYMBOL res 560 1552 R90
WINDOW 0 0 56 VBottom 2
WINDOW 3 32 56 VTop 2
SYMATTR InstName R28
SYMATTR Value 1k
SYMBOL res 176 1632 R90
WINDOW 0 0 56 VBottom 2
WINDOW 3 32 56 VTop 2
SYMATTR InstName R29
SYMATTR Value 47k
SYMBOL res 272 1776 R180
WINDOW 0 36 76 Left 2
WINDOW 3 36 40 Left 2
SYMATTR InstName R30
SYMATTR Value 1k
SYMBOL npn 32 1888 R0
SYMATTR InstName Q4
SYMATTR Value 2N3904
SYMBOL npn 368 1888 M0
SYMATTR InstName Q5
SYMATTR Value 2N3904
SYMBOL res 176 2080 R0
SYMATTR InstName R31
SYMATTR Value 3.9k
SYMBOL res 176 2208 R0
SYMATTR InstName R32
SYMATTR Value 82
SYMBOL res 912 1824 R90
WINDOW 0 0 56 VBottom 2
WINDOW 3 32 56 VTop 2
SYMATTR InstName R33
SYMATTR Value 10k
SYMBOL res 1056 1744 R90
WINDOW 0 0 56 VBottom 2
WINDOW 3 32 56 VTop 2
SYMATTR InstName R34
SYMATTR Value 470k
SYMBOL res 1248 1840 R90
WINDOW 0 0 56 VBottom 2
WINDOW 3 32 56 VTop 2
SYMATTR InstName R35
SYMATTR Value 1k
SYMBOL res -144 2000 R0
SYMATTR InstName R36
SYMATTR Value 1.2k
SYMBOL potentiometer -144 2160 R0
SYMATTR InstName U9
SYMATTR Value Rtot=2.5K wiper=.3
SYMBOL res -384 1776 R90
WINDOW 0 0 56 VBottom 2
WINDOW 3 32 56 VTop 2
SYMATTR InstName R37
SYMATTR Value 220k
SYMBOL res -384 2048 R90
WINDOW 0 0 56 VBottom 2
WINDOW 3 32 56 VTop 2
SYMATTR InstName R38
SYMATTR Value 220k
SYMBOL res -384 2288 R90
WINDOW 0 0 56 VBottom 2
WINDOW 3 32 56 VTop 2
SYMATTR InstName R39
SYMATTR Value 220k
SYMBOL potentiometer -640 1728 R0
WINDOW 3 -230 69 Left 2
SYMATTR Value Rtot=47K wiper=.5
SYMATTR InstName U10
SYMBOL potentiometer -640 2000 R0
WINDOW 3 -231 71 Left 2
SYMATTR Value Rtot=47K wiper=.5
SYMATTR InstName U11
SYMBOL potentiometer -640 2240 R0
WINDOW 3 -232 66 Left 2
SYMATTR Value Rtot=50K wiper=.08
SYMATTR InstName U12
SYMBOL res -656 2192 R90
WINDOW 0 0 56 VBottom 2
WINDOW 3 32 56 VTop 2
SYMATTR InstName R40
SYMATTR Value 68k
SYMBOL voltage -1088 1696 R0
WINDOW 123 0 0 Left 0
WINDOW 39 0 0 Left 0
SYMATTR InstName V8
SYMATTR Value 5
SYMBOL voltage -1088 1952 R0
WINDOW 123 0 0 Left 0
WINDOW 39 0 0 Left 0
SYMATTR InstName V9
SYMATTR Value 0
SYMBOL voltage -384 1008 R0
WINDOW 3 24 44 Left 2
WINDOW 123 0 0 Left 0
WINDOW 39 0 0 Left 0
SYMATTR Value 15
SYMATTR InstName V10
SYMBOL voltage -384 1136 R0
WINDOW 3 24 44 Left 2
WINDOW 123 0 0 Left 0
WINDOW 39 0 0 Left 0
SYMATTR Value 15
SYMATTR InstName V11
SYMBOL cap 336 2224 R0
SYMATTR InstName C4
SYMATTR Value 47µ
SYMBOL cap 112 1440 R0
SYMATTR InstName C5
SYMATTR Value 2.2n
SYMBOL cap 240 1456 R0
SYMATTR InstName C6
SYMATTR Value 2.2n
SYMBOL cap 368 1440 R0
SYMATTR InstName C7
SYMATTR Value 2.2n
SYMBOL cap -512 1440 R90
WINDOW 0 0 32 VBottom 2
WINDOW 3 32 32 VTop 2
SYMATTR InstName C8
SYMATTR Value 10µ
SYMBOL cap 752 1824 R90
WINDOW 0 0 32 VBottom 2
WINDOW 3 32 32 VTop 2
SYMATTR InstName C9
SYMATTR Value 10µ
SYMBOL cap -176 1008 R0
SYMATTR InstName C10
SYMATTR Value 47µ
SYMBOL Opamps\\opamp2 -272 1408 R0
SYMATTR InstName U14
SYMATTR Value TL072
SYMATTR SpiceModel TL072
SYMBOL Opamps\\opamp2 1024 1792 R0
SYMATTR InstName U15
SYMATTR Value TL072
SYMATTR SpiceModel TL072
SYMBOL Opamps\\opamp2 736 1216 R0
SYMATTR InstName U16
SYMATTR Value TL072
SYMATTR SpiceModel TL072
SYMBOL res 2704 912 R0
SYMATTR InstName R41
SYMATTR Value 4.7k
SYMBOL res 2928 912 R0
SYMATTR InstName R42
SYMATTR Value 4.7k
SYMBOL res 2832 880 R90
WINDOW 0 0 56 VBottom 2
WINDOW 3 32 56 VTop 2
SYMATTR InstName R43
SYMATTR Value {1k*b}
SYMBOL res 2928 880 R90
WINDOW 0 0 56 VBottom 2
WINDOW 3 32 41 VTop 2
SYMATTR InstName R44
SYMATTR Value {(1-b)*1k}
SYMBOL npn 2656 1056 R0
SYMATTR InstName Q6
SYMATTR Value 2N3904
SYMBOL npn 3008 1056 M0
SYMATTR InstName Q7
SYMATTR Value 2N3904
SYMBOL res 2624 1088 R90
WINDOW 0 0 56 VBottom 2
WINDOW 3 32 56 VTop 2
SYMATTR InstName R45
SYMATTR Value 100k
SYMBOL res 2656 1232 R180
WINDOW 0 38 60 Left 2
WINDOW 3 36 40 Left 2
SYMATTR InstName R46
SYMATTR Value 470
SYMBOL npn 2768 1264 R0
SYMATTR InstName Q8
SYMATTR Value 2N3904
SYMBOL npn 2640 1344 R0
SYMATTR InstName Q9
SYMATTR Value 2N3904
SYMBOL pnp 2560 1456 M270
SYMATTR InstName Q10
SYMATTR Value 2N3906
SYMBOL res 2432 1264 R90
WINDOW 0 0 56 VBottom 2
WINDOW 3 33 57 VTop 2
SYMATTR InstName R47
SYMATTR Value 22k
SYMBOL res 3328 912 R90
WINDOW 0 0 56 VBottom 2
WINDOW 3 32 56 VTop 2
SYMATTR InstName R48
SYMATTR Value 33k
SYMBOL res 3232 1072 R0
WINDOW 0 -55 47 Left 2
WINDOW 3 -54 76 Left 2
SYMATTR InstName R49
SYMATTR Value 33k
SYMBOL res 3488 1040 R90
WINDOW 0 0 56 VBottom 2
WINDOW 3 32 56 VTop 2
SYMATTR InstName R50
SYMATTR Value 4.7k
SYMBOL res 3024 1104 R0
SYMATTR InstName R51
SYMATTR Value 470
SYMBOL voltage 3408 1360 R0
WINDOW 123 0 0 Left 0
WINDOW 39 0 0 Left 0
SYMATTR InstName V12
SYMATTR Value 15
SYMBOL voltage 3408 1472 R0
WINDOW 123 0 0 Left 0
WINDOW 39 0 0 Left 0
SYMATTR InstName V13
SYMATTR Value 15
SYMBOL voltage 3536 1280 R0
WINDOW 123 0 0 Left 0
WINDOW 39 0 0 Left 0
SYMATTR InstName V15
SYMATTR Value 35
SYMBOL res 2832 1168 R90
WINDOW 0 0 56 VBottom 2
WINDOW 3 32 56 VTop 2
SYMATTR InstName R52
SYMATTR Value 10
SYMBOL res 2944 1168 R90
WINDOW 0 0 56 VBottom 2
WINDOW 3 32 56 VTop 2
SYMATTR InstName R53
SYMATTR Value 10
SYMBOL potentiometer 2336 1904 R0
WINDOW 3 -232 61 Left 2
SYMATTR Value Rtot=22K wiper=.5
SYMATTR InstName U18
SYMBOL potentiometer 2336 2224 R0
WINDOW 3 -238 54 Left 2
SYMATTR Value Rtot=22K wiper=.5
SYMATTR InstName U19
SYMBOL potentiometer 2256 1216 R0
WINDOW 3 -230 55 Left 2
SYMATTR Value Rtot=100K wiper=.5
SYMATTR InstName U20
SYMBOL cap -2832 3328 R90
WINDOW 0 0 32 VBottom 2
WINDOW 3 32 32 VTop 2
SYMATTR InstName C24
SYMATTR Value 680n
SYMBOL cap -2656 3328 R90
WINDOW 0 0 32 VBottom 2
WINDOW 3 32 32 VTop 2
SYMATTR InstName C25
SYMATTR Value 680n
SYMBOL cap -2496 3328 R90
WINDOW 0 0 32 VBottom 2
WINDOW 3 32 32 VTop 2
SYMATTR InstName C26
SYMATTR Value 680n
SYMBOL res -2800 3552 R0
SYMATTR InstName R83
SYMATTR Value 22k
SYMBOL res -2624 3552 R0
SYMATTR InstName R84
SYMATTR Value 4.7k
SYMBOL npn -2432 3488 R0
SYMATTR InstName Q18
SYMATTR Value BC547B
SYMBOL res -2416 3408 R90
WINDOW 0 0 56 VBottom 2
WINDOW 3 32 56 VTop 2
SYMATTR InstName R85
SYMATTR Value 3300K
SYMBOL npn -2112 3104 R0
SYMATTR InstName Q19
SYMATTR Value BC547B
SYMBOL res -2128 2976 R90
WINDOW 0 0 56 VBottom 2
WINDOW 3 32 56 VTop 2
SYMATTR InstName R86
SYMATTR Value 10k
SYMBOL res -2064 3424 R0
SYMATTR InstName R87
SYMATTR Value 56k
SYMBOL res -1328 3328 R180
WINDOW 0 36 76 Left 2
WINDOW 3 36 40 Left 2
SYMATTR InstName R88
SYMATTR Value 10k
SYMBOL res -1488 2928 R270
WINDOW 0 32 56 VTop 2
WINDOW 3 0 56 VBottom 2
SYMATTR InstName R89
SYMATTR Value 300k
SYMBOL npn -1408 2976 R0
SYMATTR InstName Q20
SYMATTR Value 2N2222
SYMBOL cap -1088 2896 R90
WINDOW 0 0 32 VBottom 2
WINDOW 3 32 32 VTop 2
SYMATTR InstName C27
SYMATTR Value 100n
SYMBOL cap -1600 3008 R90
WINDOW 0 0 32 VBottom 2
WINDOW 3 32 32 VTop 2
SYMATTR InstName C28
SYMATTR Value 100n
SYMBOL res -1328 2880 R180
WINDOW 0 36 76 Left 2
WINDOW 3 36 40 Left 2
SYMATTR InstName R90
SYMATTR Value 10k
SYMBOL res -640 3312 R180
WINDOW 0 36 76 Left 2
WINDOW 3 36 40 Left 2
SYMATTR InstName R91
SYMATTR Value 10k
SYMBOL voltage -352 3584 R0
SYMATTR InstName V21
SYMATTR Value 9V
SYMBOL njf -1120 3184 R270
SYMATTR InstName J3
SYMBOL voltage -2032 2912 R90
WINDOW 0 -32 56 VBottom 2
WINDOW 3 32 56 VTop 2
WINDOW 123 0 0 Left 0
WINDOW 39 0 0 Left 0
SYMATTR InstName V23
SYMATTR Value 9
SYMBOL cap -720 3120 R90
WINDOW 0 0 32 VBottom 2
WINDOW 3 32 32 VTop 2
SYMATTR InstName C29
SYMATTR Value 100n