Version 4
SHEET 1 1788 852
WIRE 1312 -32 1312 -80
WIRE 1280 -16 1232 -16
WIRE 1424 0 1344 0
WIRE 1536 0 1424 0
WIRE 1056 16 992 16
WIRE 1216 16 1136 16
WIRE 1280 16 1216 16
WIRE 1312 64 1312 32
WIRE 1312 80 1312 64
WIRE 1584 160 1584 112
WIRE 1680 160 1680 112
WIRE 928 176 928 144
WIRE 928 192 928 176
WIRE 1216 208 1216 16
WIRE 1280 208 1216 208
WIRE 1424 208 1424 0
WIRE 1424 208 1360 208
WIRE 1504 208 1424 208
WIRE 1088 224 1056 224
WIRE 928 288 928 256
WIRE 1504 288 1504 208
WIRE 928 304 928 288
WIRE 1216 320 1216 208
WIRE 1248 320 1216 320
WIRE 1344 320 1328 320
WIRE 1376 320 1344 320
WIRE 976 336 944 336
WIRE 1088 336 1088 224
WIRE 1088 336 1056 336
WIRE 1456 336 1456 320
WIRE 1216 416 1216 320
WIRE 1248 416 1216 416
WIRE 1344 416 1344 320
WIRE 1344 416 1312 416
WIRE 1376 416 1344 416
WIRE 1456 416 1456 336
WIRE 1456 416 1440 416
WIRE 1504 416 1504 368
WIRE 1504 416 1456 416
WIRE 976 448 944 448
WIRE 1088 448 1088 336
WIRE 1088 448 1056 448
WIRE 1232 448 1088 448
WIRE 1344 464 1344 416
WIRE 1552 464 1344 464
WIRE 1552 528 1552 464
WIRE 1232 576 1232 448
WIRE 1232 576 1168 576
WIRE 1280 576 1232 576
WIRE 1392 592 1344 592
WIRE 1408 592 1392 592
WIRE 1504 592 1488 592
WIRE 1280 608 1232 608
WIRE 928 624 928 576
WIRE 1056 624 1008 624
WIRE 1056 656 1056 624
WIRE 1552 672 1552 624
WIRE 1120 704 1104 704
WIRE 1232 704 1232 608
WIRE 1232 704 1200 704
WIRE 1264 704 1232 704
WIRE 1392 704 1392 592
WIRE 1392 704 1344 704
WIRE 1056 768 1056 736
WIRE 1056 768 1008 768
WIRE 928 800 928 768
FLAG 1312 -80 VCC
FLAG 1312 64 VEE
FLAG 1232 -16 0
FLAG 928 144 VCC
FLAG 928 288 VEE
FLAG 1552 672 0
FLAG 1088 576 0
FLAG 928 800 0
FLAG 928 576 VCC
FLAG 1536 0 OP
FLAG 992 16 IN
FLAG 944 336 VCO
FLAG 944 448 VCO
FLAG 1584 240 0
FLAG 1680 240 0
FLAG 1584 112 VCC
FLAG 1680 112 VEE
FLAG 992 96 0
SYMBOL res 1152 0 R90
WINDOW 0 0 56 VBottom 2
WINDOW 3 32 56 VTop 2
SYMATTR InstName R14
SYMATTR Value 10000k
SYMBOL Opamps/opamp2 1312 -64 R0
SYMATTR InstName U3
SYMATTR Value NE5532
SYMBOL res 1376 192 R90
WINDOW 0 0 56 VBottom 2
WINDOW 3 32 56 VTop 2
SYMATTR InstName R15
SYMATTR Value 3000k
SYMBOL res 1344 304 R90
WINDOW 0 0 56 VBottom 2
WINDOW 3 32 56 VTop 2
SYMATTR InstName R16
SYMATTR Value 1500k
SYMBOL res 1472 304 R90
WINDOW 0 0 56 VBottom 2
WINDOW 3 32 56 VTop 2
SYMATTR InstName R17
SYMATTR Value 1500k
SYMBOL cap 1312 400 R90
WINDOW 0 0 32 VBottom 2
WINDOW 3 32 32 VTop 2
SYMATTR InstName C3
SYMATTR Value 1n
SYMBOL cap 1440 400 R90
WINDOW 0 0 32 VBottom 2
WINDOW 3 32 32 VTop 2
SYMATTR InstName C4
SYMATTR Value 1n
SYMBOL njf 1504 528 R0
SYMATTR InstName J2
SYMATTR Value J201
SYMBOL Opamps/opamp2 1312 528 R0
SYMATTR InstName U4
SYMATTR Value NE5532
SYMBOL res 1504 576 R90
WINDOW 0 0 56 VBottom 2
WINDOW 3 32 56 VTop 2
SYMATTR InstName R18
SYMATTR Value 100k
SYMBOL res 1360 688 R90
WINDOW 0 0 56 VBottom 2
WINDOW 3 32 56 VTop 2
SYMATTR InstName R19
SYMATTR Value 100k
SYMBOL res 1216 688 R90
WINDOW 0 0 56 VBottom 2
WINDOW 3 32 56 VTop 2
SYMATTR InstName R20
SYMATTR Value 10k
SYMBOL res 1072 208 R90
WINDOW 0 0 56 VBottom 2
WINDOW 3 32 56 VTop 2
SYMATTR InstName R21
SYMATTR Value 100k
SYMBOL res 1072 320 R90
WINDOW 0 0 56 VBottom 2
WINDOW 3 32 56 VTop 2
SYMATTR InstName R22
SYMATTR Value 100k
SYMBOL res 1072 432 R90
WINDOW 0 0 56 VBottom 2
WINDOW 3 32 56 VTop 2
SYMATTR InstName R23
SYMATTR Value 100k
SYMBOL res 1184 560 R90
WINDOW 0 0 56 VBottom 2
WINDOW 3 32 56 VTop 2
SYMATTR InstName R24
SYMATTR Value 1k
SYMBOL res 1024 608 R90
WINDOW 0 0 56 VBottom 2
WINDOW 3 32 56 VTop 2
SYMATTR InstName R25
SYMATTR Value 150k
SYMBOL res 1024 752 R90
WINDOW 0 0 56 VBottom 2
WINDOW 3 32 56 VTop 2
SYMATTR InstName R26
SYMATTR Value 1k
SYMBOL voltage 1584 144 R0
SYMATTR InstName VCC1
SYMATTR Value 12V
SYMBOL voltage 1680 144 R0
SYMATTR InstName VEE1
SYMATTR Value -12V
SYMBOL potentiometer 1040 640 R0
SYMATTR InstName U5
SYMBOL potentiometer 1520 272 M0
SYMATTR InstName U6
SYMBOL potentiometer 912 160 R0
SYMATTR InstName U7
SYMATTR Value Rtot=100K wiper=.5
SYMBOL voltage 992 0 R0
WINDOW 123 24 124 Left 2
WINDOW 39 0 0 Left 0
SYMATTR InstName V1
SYMATTR Value ""
SYMATTR Value2 AC 10
TEXT 1208 -152 Left 2 !.lib NE5532.sub.cir
TEXT 1528 -136 Left 2 !.lib potentiometer.sub
TEXT 880 824 Left 2 !.ac dec 30 1 1Meg
